Circuit: * C:\Users\hakan\Documents\GitHub\Hardware_EE464\gate\Draft1.asc

Direct Newton iteration failed to find .op point.  (Use ".option noopiter" to skip.)
Starting Gmin stepping
Gmin = 10
Gmin = 1.07374
Gmin = 0.115292
Gmin = 0.0123794
Gmin = 0.00132923
Gmin = 0.000142725
Gmin = 1.5325e-005
Gmin = 1.6455e-006
Gmin = 1.76685e-007
Gmin = 1.89714e-008
Gmin = 2.03704e-009
Gmin = 2.18725e-010
Gmin = 2.34854e-011
Gmin = 2.52173e-012
Gmin = 2.70769e-013
Gmin = 0
Gmin stepping succeeded in finding the operating point.


Date: Mon May 14 22:08:04 2018
Total elapsed time: 0.890 seconds.

tnom = 27
temp = 27
method = modified trap
totiter = 321793
traniter = 321303
tranpoints = 86856
accept = 62635
rejected = 24221
matrix size = 10
fillins = 3
solver = Normal
Matrix Compiler1: 672 bytes object code size  0.3/0.1/[0.1]
Matrix Compiler2: off  [0.1]/0.2/0.2

