Circuit: * C:\Users\hakan\Documents\GitHub\Hardware_EE464\gate\Draft5.asc

Error on line 822 : .model tlc55x_pmosd_hv pmos level=3 l=10u w=100u kp= 3e-005  vto= -0.85  lambda=2e-3 theta=2.2e-01  cj= 0.00024  cjsw= 1.76e-009  cgso= 3.3150180477024e-011  cgdo= 3.3150180477024e-011  rsh=10 pb=0.65 ld=70n tox= 1e-007 
	* Unrecognized parameter "lambda" -- ignored
Error on line 809 : .model tlc55x_nmosd_hv nmos level=3 l=10u w=100u kp= 6e-005  vto= 0.8  lambda=2e-3 theta=1.8e-01  cj= 0.000144  cjsw= 8e-010  cgso= 3.3150180477024e-011  cgdo= 3.3150180477024e-011  rsh= 10 pb=0.65 ld= 70n tox= 1e-007 
	* Unrecognized parameter "lambda" -- ignored
Instance "m:u1:mn10:1": Length shorter than recommended for a level 1 MOSFET.
Direct Newton iteration for .op point succeeded.

Date: Mon May 14 21:07:47 2018
Total elapsed time: 0.216 seconds.

tnom = 27
temp = 27
method = modified trap
totiter = 3431
traniter = 3389
tranpoints = 1414
accept = 1307
rejected = 107
matrix size = 52
fillins = 31
solver = Normal
Matrix Compiler1: 5.04 KB object code size  1.5/0.6/[0.5]
Matrix Compiler2: 5.44 KB object code size  0.8/0.9/[0.4]

